%nprocshared=64
%mem=30GB
%chk=2-CN.chk
# B3LYP/6-311G* 

2-CN

  0  1
N -0.40431 1.02133 0.19225
C 0.74559 0.17844 -0.00516
S 0.59695 -1.09666 -0.66769
N 2.05072 0.71222 0.31147
H -0.23619 1.9655 0.573
H 2.06847 1.72724 0.48572
C 3.32325 0.02376 0.38206
C 4.53681 0.76392 0.33758
C 5.77738 0.10633 0.41065
C 5.83257 -1.28038 0.54685
C 4.6568 -2.02006 0.61774
C 3.41867 -1.38361 0.54066
C -1.78579 0.63516 -0.11664
C -4.25086 1.46669 -0.22675
C -2.21648 -0.5485 0.7642
C -2.69383 -1.80093 0.26178
C -3.05396 -2.80986 1.19641
N -2.94903 -2.58277 2.53016
C -2.50411 -1.40449 3.02423
C -2.13332 -0.37914 2.16075
C -2.83649 -2.09655 -1.11591
C -3.3105 -3.34305 -1.5496
C -3.65209 -4.32049 -0.59944
C -3.52442 -4.05137 0.7604
O -3.42192 -3.55788 -2.8871
C -3.86674 -4.71864 -3.48667
C -2.76183 1.83447 0.08657
C -4.95294 2.73043 -0.79049
N -2.37237 3.05431 -0.6836
C -4.36826 2.98432 -2.19937
C -2.81914 2.94275 -2.10071
C -4.5941 3.9762 0.06982
C -3.05422 4.22863 -0.06819
C -5.02635 3.79935 1.51355
C -5.90808 4.62025 2.09376
H -1.81825 0.38306 -1.18377
H -4.32837 0.6793 -1.00987
H -4.73155 1.06112 0.6892
H -2.43643 -1.26409 4.09477
H -1.77536 0.54862 2.58816
H -2.59362 -1.38784 -1.88823
H -4.01993 -5.29233 -0.90073
H -3.79501 -4.81485 1.48012
H -3.84287 -4.58959 -4.58817
H -3.20515 -5.56913 -3.21628
H -4.91202 -4.93576 -3.179
H -2.69961 2.10937 1.16305
H -6.05409 2.59036 -0.85588
H -4.70973 2.24074 -2.95215
H -4.71749 3.98382 -2.54245
H -2.36977 3.73055 -2.74265
H -2.45934 1.98088 -2.51847
H -5.11799 4.87018 -0.34046
H -2.88786 5.11036 -0.72823
H -2.59564 4.50454 0.90688
H -4.61791 2.9906 2.10925
H -6.19363 4.46399 3.12904
H -6.35214 5.44917 1.55118
H 2.55798 -2.01863 0.63488
H 6.70049 0.66553 0.36652
H 6.79 -1.78562 0.60731
C 4.53483 2.19984 0.19203
N 4.52341 3.35499 0.0748
H 4.70228 -3.09452 0.73723

